 xtb: 6.7.1 (edcfbbe)
          07302619573D

 12  5  0     0  0            999 V2000
    1.0596    0.0286   -0.2371 C   0  0  0  0  0  0  0  0  0  0  0  0
   -0.2191    0.1884    0.5363 C   0  0  0  0  0  0  0  0  0  0  0  0
   -1.4049   -0.0939   -0.2123 N   0  0  0  0  0  0  0  0  0  0  0  0
    0.8578    0.0000    0.0000 I   0  0  0  0  0  0  0  0  0  0  0  0
    1.4777    1.0150   -0.5566 H   0  0  0  0  0  0  0  0  0  0  0  0
    1.8270   -0.4533    0.4216 H   0  0  0  0  0  0  0  0  0  0  0  0
    0.9618   -0.6676   -1.1050 H   0  0  0  0  0  0  0  0  0  0  0  0
   -0.1849   -0.4646    1.4416 H   0  0  0  0  0  0  0  0  0  0  0  0
   -0.2418    1.2516    0.8853 H   0  0  0  0  0  0  0  0  0  0  0  0
   -1.8930   -0.9650    0.0313 H   0  0  0  0  0  0  0  0  0  0  0  0
   -1.3825    0.1609   -1.2051 H   0  0  0  0  0  0  0  0  0  0  0  0
   -0.8578    0.0000    0.0000 H   0  0  0  0  0  0  0  0  0  0  0  0
  1  2  1  0  0  0  0
  2  7  1  0  0  0  0
  3 10  1  0  0  0  0
  3 11  1  0  0  0  0
  3 12  1  0  0  0  0
M  END
