 xtb: 6.7.1 (edcfbbe)
          07302619573D

 63 61  0     0  0            999 V2000
    8.2126   -0.5987    1.6756 C   0  0  0  0  0  0  0  0  0  0  0  0
    6.9700   -0.4698    0.8077 C   0  0  0  0  0  0  0  0  0  0  0  0
    7.1462    0.6095   -0.2613 C   0  0  0  0  0  0  0  0  0  0  0  0
    5.9657    0.6987   -1.2337 C   0  0  0  0  0  0  0  0  0  0  0  0
    4.6682    1.1636   -0.5679 C   0  0  0  0  0  0  0  0  0  0  0  0
    3.5385    1.4330   -1.5674 C   0  0  0  0  0  0  0  0  0  0  0  0
    3.1077    0.2352   -2.4204 C   0  0  0  0  0  0  0  0  0  0  0  0
    2.6853   -1.0162   -1.6448 C   0  0  0  0  0  0  0  0  0  0  0  0
    1.4908   -0.7822   -0.7164 C   0  0  0  0  0  0  0  0  0  0  0  0
    1.0492   -2.0870   -0.0482 C   0  0  0  0  0  0  0  0  0  0  0  0
   -0.0658   -1.8961    0.9841 C   0  0  0  0  0  0  0  0  0  0  0  0
   -1.3903   -1.4326    0.3712 C   0  0  0  0  0  0  0  0  0  0  0  0
   -2.4956   -1.3711    1.4299 C   0  0  0  0  0  0  0  0  0  0  0  0
   -3.8715   -1.0116    0.8548 C   0  0  0  0  0  0  0  0  0  0  0  0
   -3.9912    0.4556    0.4435 C   0  0  0  0  0  0  0  0  0  0  0  0
   -5.2054    0.8146   -0.4217 C   0  0  0  0  0  0  0  0  0  0  0  0
   -6.5910    0.7368    0.2438 N   0  0  0  0  0  0  0  0  0  0  0  0
   -7.1334   -0.6883    0.2752 C   0  0  0  0  0  0  0  0  0  0  0  0
   -6.5964    1.3246    1.6478 C   0  0  0  0  0  0  0  0  0  0  0  0
   -7.5575    1.5672   -0.6181 C   0  0  0  0  0  0  0  0  0  0  0  0
    0.0000    0.0000    0.0000 Cl  0  0  0  0  0  0  0  0  0  0  0  0
    8.4321    0.3432    2.1884 H   0  0  0  0  0  0  0  0  0  0  0  0
    9.0848   -0.8745    1.0743 H   0  0  0  0  0  0  0  0  0  0  0  0
    8.0655   -1.3730    2.4350 H   0  0  0  0  0  0  0  0  0  0  0  0
    6.7622   -1.4352    0.3321 H   0  0  0  0  0  0  0  0  0  0  0  0
    6.1168   -0.2326    1.4519 H   0  0  0  0  0  0  0  0  0  0  0  0
    8.0515    0.3934   -0.8423 H   0  0  0  0  0  0  0  0  0  0  0  0
    7.3043    1.5837    0.2173 H   0  0  0  0  0  0  0  0  0  0  0  0
    6.2311    1.4039   -2.0309 H   0  0  0  0  0  0  0  0  0  0  0  0
    5.8197   -0.2777   -1.7092 H   0  0  0  0  0  0  0  0  0  0  0  0
    4.8619    2.0921   -0.0164 H   0  0  0  0  0  0  0  0  0  0  0  0
    4.3348    0.4289    0.1722 H   0  0  0  0  0  0  0  0  0  0  0  0
    3.8480    2.2413   -2.2421 H   0  0  0  0  0  0  0  0  0  0  0  0
    2.6712    1.8184   -1.0182 H   0  0  0  0  0  0  0  0  0  0  0  0
    2.2749    0.5521   -3.0609 H   0  0  0  0  0  0  0  0  0  0  0  0
    3.9226   -0.0358   -3.1023 H   0  0  0  0  0  0  0  0  0  0  0  0
    2.4239   -1.7941   -2.3734 H   0  0  0  0  0  0  0  0  0  0  0  0
    3.5329   -1.4070   -1.0703 H   0  0  0  0  0  0  0  0  0  0  0  0
    0.6643   -0.3586   -1.2973 H   0  0  0  0  0  0  0  0  0  0  0  0
    1.7541   -0.0543    0.0588 H   0  0  0  0  0  0  0  0  0  0  0  0
    1.9110   -2.5372    0.4603 H   0  0  0  0  0  0  0  0  0  0  0  0
    0.7240   -2.8035   -0.8122 H   0  0  0  0  0  0  0  0  0  0  0  0
   -0.2233   -2.8540    1.4954 H   0  0  0  0  0  0  0  0  0  0  0  0
    0.2590   -1.1801    1.7488 H   0  0  0  0  0  0  0  0  0  0  0  0
   -1.6858   -2.1232   -0.4276 H   0  0  0  0  0  0  0  0  0  0  0  0
   -1.2575   -0.4462   -0.0825 H   0  0  0  0  0  0  0  0  0  0  0  0
   -2.5765   -2.3539    1.9112 H   0  0  0  0  0  0  0  0  0  0  0  0
   -2.2230   -0.6558    2.2154 H   0  0  0  0  0  0  0  0  0  0  0  0
   -4.0995   -1.6669    0.0063 H   0  0  0  0  0  0  0  0  0  0  0  0
   -4.6029   -1.2219    1.6402 H   0  0  0  0  0  0  0  0  0  0  0  0
   -3.1114    0.7267   -0.1515 H   0  0  0  0  0  0  0  0  0  0  0  0
   -3.9443    1.0944    1.3327 H   0  0  0  0  0  0  0  0  0  0  0  0
   -5.2430    0.1937   -1.3247 H   0  0  0  0  0  0  0  0  0  0  0  0
   -5.0808    1.8565   -0.7431 H   0  0  0  0  0  0  0  0  0  0  0  0
   -6.5621   -1.2812    0.9870 H   0  0  0  0  0  0  0  0  0  0  0  0
   -8.1788   -0.6528    0.5981 H   0  0  0  0  0  0  0  0  0  0  0  0
   -7.0627   -1.1114   -0.7308 H   0  0  0  0  0  0  0  0  0  0  0  0
   -6.0091    0.6792    2.3056 H   0  0  0  0  0  0  0  0  0  0  0  0
   -7.6309    1.3648    2.0026 H   0  0  0  0  0  0  0  0  0  0  0  0
   -6.1691    2.3306    1.6029 H   0  0  0  0  0  0  0  0  0  0  0  0
   -8.5595    1.4995   -0.1834 H   0  0  0  0  0  0  0  0  0  0  0  0
   -7.5506    1.1573   -1.6325 H   0  0  0  0  0  0  0  0  0  0  0  0
   -7.2162    2.6068   -0.6183 H   0  0  0  0  0  0  0  0  0  0  0  0
  1  2  1  0  0  0  0
  2  3  1  0  0  0  0
  3  4  1  0  0  0  0
  4  5  1  0  0  0  0
  5  6  1  0  0  0  0
  6  7  1  0  0  0  0
  7  8  1  0  0  0  0
  8  9  1  0  0  0  0
  9 10  1  0  0  0  0
 10 11  1  0  0  0  0
 11 12  1  0  0  0  0
 12 13  1  0  0  0  0
 13 14  1  0  0  0  0
 14 15  1  0  0  0  0
 15 16  1  0  0  0  0
 16 17  1  0  0  0  0
 17 18  1  0  0  0  0
 17 19  1  0  0  0  0
 17 20  1  0  0  0  0
  1 22  1  0  0  0  0
  1 23  1  0  0  0  0
  1 24  1  0  0  0  0
  2 25  1  0  0  0  0
  2 26  1  0  0  0  0
  3 27  1  0  0  0  0
  3 28  1  0  0  0  0
  4 29  1  0  0  0  0
  4 30  1  0  0  0  0
  5 31  1  0  0  0  0
  5 32  1  0  0  0  0
  6 33  1  0  0  0  0
  6 34  1  0  0  0  0
  7 35  1  0  0  0  0
  7 36  1  0  0  0  0
  8 37  1  0  0  0  0
  8 38  1  0  0  0  0
  9 39  1  0  0  0  0
  9 40  1  0  0  0  0
 10 41  1  0  0  0  0
 10 42  1  0  0  0  0
 11 43  1  0  0  0  0
 11 44  1  0  0  0  0
 12 45  1  0  0  0  0
 12 46  1  0  0  0  0
 13 47  1  0  0  0  0
 13 48  1  0  0  0  0
 14 49  1  0  0  0  0
 14 50  1  0  0  0  0
 15 51  1  0  0  0  0
 15 52  1  0  0  0  0
 16 53  1  0  0  0  0
 16 54  1  0  0  0  0
 18 55  1  0  0  0  0
 18 56  1  0  0  0  0
 18 57  1  0  0  0  0
 19 58  1  0  0  0  0
 19 59  1  0  0  0  0
 19 60  1  0  0  0  0
 20 61  1  0  0  0  0
 20 62  1  0  0  0  0
 20 63  1  0  0  0  0
M  END
