 xtb: 6.7.1 (edcfbbe)
          07302619573D

 18 18  0     0  0            999 V2000
   -1.6550   -0.2081    0.3511 C   0  0  0  0  0  0  0  0  0  0  0  0
   -0.9072    0.3806   -0.8350 C   0  0  0  0  0  0  0  0  0  0  0  0
    0.5272   -0.1242   -0.6905 C   0  0  0  0  0  0  0  0  0  0  0  0
    0.5399   -0.9355    0.5587 N   0  0  0  0  0  0  0  0  0  0  0  0
   -0.8282   -1.4191    0.7268 C   0  0  0  0  0  0  0  0  0  0  0  0
    1.5287    1.0306   -0.5702 C   0  0  0  0  0  0  0  0  0  0  0  0
    2.1540    1.4907   -1.5191 O   0  0  0  0  0  0  0  0  0  0  0  0
    1.6355    1.5652    0.6847 N   0  0  0  0  0  0  0  0  0  0  0  0
   -1.6730    0.5142    1.1766 H   0  0  0  0  0  0  0  0  0  0  0  0
   -2.6885   -0.4661    0.1021 H   0  0  0  0  0  0  0  0  0  0  0  0
   -1.3388   -0.0065   -1.7659 H   0  0  0  0  0  0  0  0  0  0  0  0
   -0.9954    1.4719   -0.8540 H   0  0  0  0  0  0  0  0  0  0  0  0
    0.8135   -0.7512   -1.5427 H   0  0  0  0  0  0  0  0  0  0  0  0
    1.1881   -1.7158    0.4508 H   0  0  0  0  0  0  0  0  0  0  0  0
   -1.0268   -2.2568    0.0481 H   0  0  0  0  0  0  0  0  0  0  0  0
   -1.0170   -1.7451    1.7532 H   0  0  0  0  0  0  0  0  0  0  0  0
    1.3567    0.9529    1.4459 H   0  0  0  0  0  0  0  0  0  0  0  0
    2.3864    2.2223    0.8394 H   0  0  0  0  0  0  0  0  0  0  0  0
  1  2  1  0  0  0  0
  2  3  1  0  0  0  0
  3  4  1  0  0  0  0
  1  5  1  0  0  0  0
  4  5  1  0  0  0  0
  3  6  1  0  0  0  0
  6  7  2  0  0  0  0
  6  8  4  0  0  0  0
  1  9  1  0  0  0  0
  1 10  1  0  0  0  0
  2 11  1  0  0  0  0
  2 12  1  0  0  0  0
  3 13  1  0  0  0  0
  4 14  1  0  0  0  0
  5 15  1  0  0  0  0
  5 16  1  0  0  0  0
  8 17  1  0  0  0  0
  8 18  1  0  0  0  0
M  END
