 xtb: 6.7.1 (edcfbbe)
          07302619573D

 15 15  0     0  0            999 V2000
   -2.1865    0.3047    0.2742 C   0  0  0  0  0  0  0  0  0  0  0  0
   -1.6597   -0.9165    0.4206 C   0  0  0  0  0  0  0  0  0  0  0  0
   -0.3252   -1.1616    0.2641 N   0  0  0  0  0  0  0  0  0  0  0  0
    0.5767   -0.1619   -0.0572 C   0  0  0  0  0  0  0  0  0  0  0  0
    0.1818    1.1095   -0.2328 C   0  0  0  0  0  0  0  0  0  0  0  0
   -1.2627    1.4179   -0.0715 C   0  0  0  0  0  0  0  0  0  0  0  0
   -1.6827    2.5601   -0.2193 O   0  0  0  0  0  0  0  0  0  0  0  0
    2.0065   -0.5504   -0.2016 C   0  0  0  0  0  0  0  0  0  0  0  0
    2.4247   -1.6881   -0.0542 O   0  0  0  0  0  0  0  0  0  0  0  0
    2.8291    0.4640   -0.5137 O   0  0  0  0  0  0  0  0  0  0  0  0
   -3.2366    0.5306    0.3912 H   0  0  0  0  0  0  0  0  0  0  0  0
   -2.2649   -1.7822    0.6723 H   0  0  0  0  0  0  0  0  0  0  0  0
    0.0484   -2.1027    0.3818 H   0  0  0  0  0  0  0  0  0  0  0  0
    0.8377    1.9314   -0.4841 H   0  0  0  0  0  0  0  0  0  0  0  0
    3.7133    0.0451   -0.5699 H   0  0  0  0  0  0  0  0  0  0  0  0
  1  2  2  0  0  0  0
  2  3  4  0  0  0  0
  3  4  1  0  0  0  0
  4  5  2  0  0  0  0
  1  6  1  0  0  0  0
  5  6  1  0  0  0  0
  6  7  2  0  0  0  0
  4  8  1  0  0  0  0
  8  9  2  0  0  0  0
  8 10  1  0  0  0  0
  1 11  1  0  0  0  0
  2 12  1  0  0  0  0
  3 13  1  0  0  0  0
  5 14  1  0  0  0  0
 10 15  1  0  0  0  0
M  END
