 xtb: 6.7.1 (edcfbbe)
          07302619573D

 25 26  0     0  0            999 V2000
   -3.1907   -1.1063    0.4078 C   0  0  0  0  0  0  0  0  0  0  0  0
   -1.7633   -1.2878    0.1909 N   0  0  0  0  0  0  0  0  0  0  0  0
   -0.9251   -0.1441    0.1298 C   0  0  0  0  0  0  0  0  0  0  0  0
   -1.4696    1.1192    0.2768 C   0  0  0  0  0  0  0  0  0  0  0  0
   -0.6738    2.2664    0.2225 C   0  0  0  0  0  0  0  0  0  0  0  0
    0.6775    2.1852    0.0216 C   0  0  0  0  0  0  0  0  0  0  0  0
    1.2343    0.9222   -0.1272 C   0  0  0  0  0  0  0  0  0  0  0  0
    2.5983    0.8738   -0.3282 C   0  0  0  0  0  0  0  0  0  0  0  0
    3.1988   -0.3604   -0.4818 C   0  0  0  0  0  0  0  0  0  0  0  0
    2.4195   -1.4925   -0.4291 C   0  0  0  0  0  0  0  0  0  0  0  0
    1.0564   -1.4199   -0.2269 C   0  0  0  0  0  0  0  0  0  0  0  0
    0.4381   -0.2027   -0.0717 C   0  0  0  0  0  0  0  0  0  0  0  0
    0.8578    0.0000    0.0000 I   0  0  0  0  0  0  0  0  0  0  0  0
   -3.4309   -0.9121    1.4785 H   0  0  0  0  0  0  0  0  0  0  0  0
   -3.7460   -2.0078    0.1154 H   0  0  0  0  0  0  0  0  0  0  0  0
   -3.5601   -0.3022   -0.2662 H   0  0  0  0  0  0  0  0  0  0  0  0
   -1.4379   -2.2698    0.0922 H   0  0  0  0  0  0  0  0  0  0  0  0
   -2.5220    1.3016    0.4400 H   0  0  0  0  0  0  0  0  0  0  0  0
   -1.1133    3.2428    0.3388 H   0  0  0  0  0  0  0  0  0  0  0  0
    1.2772    3.0829   -0.0175 H   0  0  0  0  0  0  0  0  0  0  0  0
    3.2242    1.7583   -0.3718 H   0  0  0  0  0  0  0  0  0  0  0  0
    4.2837   -0.4363   -0.6437 H   0  0  0  0  0  0  0  0  0  0  0  0
    2.9066   -2.4666   -0.5522 H   0  0  0  0  0  0  0  0  0  0  0  0
    0.5181   -2.3439   -0.1981 H   0  0  0  0  0  0  0  0  0  0  0  0
   -0.8578    0.0000    0.0000 H   0  0  0  0  0  0  0  0  0  0  0  0
  1  2  1  0  0  0  0
  2  3  1  0  0  0  0
  3  4  1  0  0  0  0
  4  5  1  0  0  0  0
  5  6  1  0  0  0  0
  6  7  1  0  0  0  0
  3  8  1  0  0  0  0
  8  9  1  0  0  0  0
  3 10  1  0  0  0  0
  8 10  1  0  0  0  0
  9 10  1  0  0  0  0
  6 11  1  0  0  0  0
  7 11  1  0  0  0  0
 10 11  1  0  0  0  0
  7 12  1  0  0  0  0
  1 14  1  0  0  0  0
  1 15  1  0  0  0  0
  1 16  1  0  0  0  0
  2 17  1  0  0  0  0
  4 18  1  0  0  0  0
  5 19  1  0  0  0  0
  6 20  1  0  0  0  0
  8 21  1  0  0  0  0
  9 22  1  0  0  0  0
 10 23  1  0  0  0  0
 11 24  1  0  0  0  0
M  END
