 xtb: 6.7.1 (edcfbbe)
          07302619573D

 15 15  0     0  0            999 V2000
    0.1591    1.3090   -1.0883 C   0  0  0  0  0  0  0  0  0  0  0  0
    1.2444    0.8845   -0.3343 C   0  0  0  0  0  0  0  0  0  0  0  0
    1.1076   -0.1881    0.5553 C   0  0  0  0  0  0  0  0  0  0  0  0
   -0.1012   -0.8321    0.6918 N   0  0  0  0  0  0  0  0  0  0  0  0
   -1.1810   -0.4158   -0.0532 C   0  0  0  0  0  0  0  0  0  0  0  0
   -1.0572    0.6556   -0.9462 C   0  0  0  0  0  0  0  0  0  0  0  0
   -2.5756   -1.0970    0.0504 C   0  0  0  0  0  0  0  0  0  0  0  0
   -3.5077   -0.6210   -0.6947 O   0  0  0  0  0  0  0  0  0  0  0  0
   -2.7479   -2.0776    0.8470 O   0  0  0  0  0  0  0  0  0  0  0  0
    2.3687   -0.6052    1.3648 C   0  0  0  0  0  0  0  0  0  0  0  0
    3.4407    0.0701    1.1526 O   0  0  0  0  0  0  0  0  0  0  0  0
    2.3038   -1.5751    2.1900 O   0  0  0  0  0  0  0  0  0  0  0  0
    0.2600    2.1381   -1.7778 H   0  0  0  0  0  0  0  0  0  0  0  0
    2.2047    1.3823   -0.4306 H   0  0  0  0  0  0  0  0  0  0  0  0
   -1.9185    0.9722   -1.5267 H   0  0  0  0  0  0  0  0  0  0  0  0
  1  2  4  0  0  0  0
  2  3  4  0  0  0  0
  3  4  4  0  0  0  0
  4  5  4  0  0  0  0
  1  6  4  0  0  0  0
  5  6  4  0  0  0  0
  5  7  1  0  0  0  0
  7  8  2  0  0  0  0
  7  9  2  0  0  0  0
  3 10  1  0  0  0  0
 10 11  2  0  0  0  0
 10 12  2  0  0  0  0
  1 13  1  0  0  0  0
  2 14  1  0  0  0  0
  6 15  1  0  0  0  0
M  END
