 xtb: 6.7.1 (edcfbbe)
          07302619573D

 12 11  0     0  0            999 V2000
   -1.4437   -0.5822    0.0779 C   0  0  0  0  0  0  0  0  0  0  0  0
   -0.1618    0.1828   -0.0467 C   0  0  0  0  0  0  0  0  0  0  0  0
   -0.1248    1.4940   -0.3383 C   0  0  0  0  0  0  0  0  0  0  0  0
    1.0722   -0.6079    0.1745 C   0  0  0  0  0  0  0  0  0  0  0  0
    1.1080   -1.7963    0.4413 O   0  0  0  0  0  0  0  0  0  0  0  0
    2.2022    0.1085    0.0553 O   0  0  0  0  0  0  0  0  0  0  0  0
   -2.3180    0.0542   -0.0959 H   0  0  0  0  0  0  0  0  0  0  0  0
   -1.4771   -1.3970   -0.6530 H   0  0  0  0  0  0  0  0  0  0  0  0
   -1.5398   -1.0095    1.0816 H   0  0  0  0  0  0  0  0  0  0  0  0
    0.8104    2.0392   -0.4263 H   0  0  0  0  0  0  0  0  0  0  0  0
   -1.0357    2.0618   -0.4980 H   0  0  0  0  0  0  0  0  0  0  0  0
    2.9081   -0.5476    0.2274 H   0  0  0  0  0  0  0  0  0  0  0  0
  1  2  1  0  0  0  0
  2  3  2  0  0  0  0
  2  4  1  0  0  0  0
  4  5  2  0  0  0  0
  4  6  1  0  0  0  0
  1  7  1  0  0  0  0
  1  8  1  0  0  0  0
  1  9  1  0  0  0  0
  3 10  1  0  0  0  0
  3 11  1  0  0  0  0
  6 12  1  0  0  0  0
M  END
