 xtb: 6.7.1 (edcfbbe)
          07302619573D

 19 17  0     0  0            999 V2000
    1.6779   -0.7988    0.2968 C   0  0  0  0  0  0  0  0  0  0  0  0
    2.9084   -0.2331    0.0410 C   0  0  0  0  0  0  0  0  0  0  0  0
    2.7610    1.0671   -0.1105 O   0  0  0  0  0  0  0  0  0  0  0  0
    1.4857    1.3883    0.0338 C   0  0  0  0  0  0  0  0  0  0  0  0
    0.7519    0.2461    0.2935 C   0  0  0  0  0  0  0  0  0  0  0  0
   -0.7044    0.0928    0.5275 C   0  0  0  0  0  0  0  0  0  0  0  0
   -1.4849   -0.1507   -0.7499 C   0  0  0  0  0  0  0  0  0  0  0  0
   -2.8994   -0.2834   -0.3771 N   0  0  0  0  0  0  0  0  0  0  0  0
    0.6828    0.0000    0.0000 Cl  0  0  0  0  0  0  0  0  0  0  0  0
    1.4137   -1.8377    0.4739 H   0  0  0  0  0  0  0  0  0  0  0  0
    3.8519   -0.7927   -0.0228 H   0  0  0  0  0  0  0  0  0  0  0  0
    1.0675    2.3928   -0.0387 H   0  0  0  0  0  0  0  0  0  0  0  0
   -0.8784   -0.7098    1.2711 H   0  0  0  0  0  0  0  0  0  0  0  0
   -1.0695    1.0843    0.9042 H   0  0  0  0  0  0  0  0  0  0  0  0
   -1.4212    0.7206   -1.4267 H   0  0  0  0  0  0  0  0  0  0  0  0
   -1.2062   -1.0923   -1.2625 H   0  0  0  0  0  0  0  0  0  0  0  0
   -3.0494    0.1843    0.5407 H   0  0  0  0  0  0  0  0  0  0  0  0
   -3.2045   -1.2780   -0.3946 H   0  0  0  0  0  0  0  0  0  0  0  0
   -0.6828    0.0000    0.0000 H   0  0  0  0  0  0  0  0  0  0  0  0
  1  2  1  0  0  0  0
  2  3  4  0  0  0  0
  3  4  4  0  0  0  0
  1  5  1  0  0  0  0
  6  7  1  0  0  0  0
  7  8  1  0  0  0  0
  4  9  1  0  0  0  0
  6  9  1  0  0  0  0
  1 10  1  0  0  0  0
  2 11  1  0  0  0  0
  4 12  1  0  0  0  0
  6 13  1  0  0  0  0
  6 14  1  0  0  0  0
  7 15  1  0  0  0  0
  7 16  1  0  0  0  0
  8 17  1  0  0  0  0
  8 18  1  0  0  0  0
M  END
