 xtb: 6.7.1 (edcfbbe)
          07302619573D

 16 14  0     0  0            999 V2000
   -2.0803    0.1697   -0.5114 C   0  0  0  0  0  0  0  0  0  0  0  0
   -0.8268    0.7604   -0.5642 C   0  0  0  0  0  0  0  0  0  0  0  0
    0.0012   -0.0639    0.1340 N   0  0  0  0  0  0  0  0  0  0  0  0
   -0.6867   -1.0858    0.5841 N   0  0  0  0  0  0  0  0  0  0  0  0
   -1.9828   -1.0011    0.2189 C   0  0  0  0  0  0  0  0  0  0  0  0
    1.3939    0.1965    0.3142 C   0  0  0  0  0  0  0  0  0  0  0  0
    1.7100    1.3130    0.9235 N   0  0  0  0  0  0  0  0  0  0  0  0
    2.4097   -0.6905   -0.1332 N   0  0  0  0  0  0  0  0  0  0  0  0
    0.6828    0.0000    0.0000 Cl  0  0  0  0  0  0  0  0  0  0  0  0
   -3.0001    0.5396   -0.9575 H   0  0  0  0  0  0  0  0  0  0  0  0
   -0.5632    1.6963   -1.0653 H   0  0  0  0  0  0  0  0  0  0  0  0
   -2.8009   -1.6965    0.4405 H   0  0  0  0  0  0  0  0  0  0  0  0
    0.8649    1.8912    1.2099 H   0  0  0  0  0  0  0  0  0  0  0  0
    2.6991   -0.6780   -1.1417 H   0  0  0  0  0  0  0  0  0  0  0  0
    2.8621   -1.3508    0.5482 H   0  0  0  0  0  0  0  0  0  0  0  0
   -0.6828    0.0000    0.0000 H   0  0  0  0  0  0  0  0  0  0  0  0
  1  2  2  0  0  0  0
  1  5  4  0  0  0  0
  4  5  2  0  0  0  0
  3  6  1  0  0  0  0
  6  7  1  0  0  0  0
  6  8  1  0  0  0  0
  8  9  1  0  0  0  0
  1 10  1  0  0  0  0
  2 11  1  0  0  0  0
  5 12  1  0  0  0  0
  7 13  1  0  0  0  0
  8 14  1  0  0  0  0
  8 15  1  0  0  0  0
  2 16  1  0  0  0  0
M  END
