 xtb: 6.7.1 (edcfbbe)
          07302619573D

 29 29  0     0  0            999 V2000
    1.7929   -0.7935   -1.0605 C   0  0  0  0  0  0  0  0  0  0  0  0
    1.3098    0.0248    0.1636 C   0  0  0  0  0  0  0  0  0  0  0  0
    0.9976    1.4751   -0.2984 C   0  0  0  0  0  0  0  0  0  0  0  0
   -0.3285    1.5972   -1.0339 C   0  0  0  0  0  0  0  0  0  0  0  0
   -1.4461    1.0714   -0.1457 C   0  0  0  0  0  0  0  0  0  0  0  0
   -1.2187   -0.3929    0.3217 C   0  0  0  0  0  0  0  0  0  0  0  0
    0.1417   -0.5161    0.9032 N   0  0  0  0  0  0  0  0  0  0  0  0
    0.3914   -1.8758    1.3038 O   0  0  0  0  0  0  0  0  0  0  0  0
   -2.2736   -0.6448    1.4377 C   0  0  0  0  0  0  0  0  0  0  0  0
   -1.5587   -1.3472   -0.8510 C   0  0  0  0  0  0  0  0  0  0  0  0
    2.5169    0.1465    1.1383 C   0  0  0  0  0  0  0  0  0  0  0  0
    1.0616   -0.8272   -1.8683 H   0  0  0  0  0  0  0  0  0  0  0  0
    2.0517   -1.8242   -0.7954 H   0  0  0  0  0  0  0  0  0  0  0  0
    2.6997   -0.3453   -1.4859 H   0  0  0  0  0  0  0  0  0  0  0  0
    0.9672    2.1434    0.5739 H   0  0  0  0  0  0  0  0  0  0  0  0
    1.8014    1.8542   -0.9426 H   0  0  0  0  0  0  0  0  0  0  0  0
   -0.2992    1.0595   -1.9868 H   0  0  0  0  0  0  0  0  0  0  0  0
   -0.5174    2.6498   -1.2747 H   0  0  0  0  0  0  0  0  0  0  0  0
   -2.4008    1.1599   -0.6800 H   0  0  0  0  0  0  0  0  0  0  0  0
   -1.5259    1.7315    0.7297 H   0  0  0  0  0  0  0  0  0  0  0  0
   -2.2858   -1.6896    1.7681 H   0  0  0  0  0  0  0  0  0  0  0  0
   -2.0825   -0.0165    2.3161 H   0  0  0  0  0  0  0  0  0  0  0  0
   -3.2841   -0.4089    1.0827 H   0  0  0  0  0  0  0  0  0  0  0  0
   -0.9587   -1.1610   -1.7420 H   0  0  0  0  0  0  0  0  0  0  0  0
   -1.4396   -2.4009   -0.5771 H   0  0  0  0  0  0  0  0  0  0  0  0
   -2.6058   -1.2217   -1.1543 H   0  0  0  0  0  0  0  0  0  0  0  0
    3.3477    0.6867    0.6681 H   0  0  0  0  0  0  0  0  0  0  0  0
    2.9033   -0.8324    1.4438 H   0  0  0  0  0  0  0  0  0  0  0  0
    2.2425    0.6980    2.0458 H   0  0  0  0  0  0  0  0  0  0  0  0
  1  2  1  0  0  0  0
  2  3  1  0  0  0  0
  3  4  1  0  0  0  0
  4  5  1  0  0  0  0
  5  6  1  0  0  0  0
  2  7  1  0  0  0  0
  6  7  1  0  0  0  0
  7  8  4  0  0  0  0
  6  9  1  0  0  0  0
  6 10  1  0  0  0  0
  2 11  1  0  0  0  0
  1 12  1  0  0  0  0
  1 13  1  0  0  0  0
  1 14  1  0  0  0  0
  3 15  1  0  0  0  0
  3 16  1  0  0  0  0
  4 17  1  0  0  0  0
  4 18  1  0  0  0  0
  5 19  1  0  0  0  0
  5 20  1  0  0  0  0
  9 21  1  0  0  0  0
  9 22  1  0  0  0  0
  9 23  1  0  0  0  0
 10 24  1  0  0  0  0
 10 25  1  0  0  0  0
 10 26  1  0  0  0  0
 11 27  1  0  0  0  0
 11 28  1  0  0  0  0
 11 29  1  0  0  0  0
M  END
