 xtb: 6.7.1 (edcfbbe)
          07302619573D

 32 38  0     0  0            999 V2000
    4.2958   -0.7432   -0.1721 C   0  0  0  0  0  0  0  0  0  0  0  0
    3.2578    0.3852   -0.0821 C   0  0  0  0  0  0  0  0  0  0  0  0
    2.0450   -0.1026    0.6709 C   0  0  0  0  0  0  0  0  0  0  0  0
    0.9968    0.9713    0.7904 C   0  0  0  0  0  0  0  0  0  0  0  0
    0.4981    1.4635   -0.5221 C   0  0  0  0  0  0  0  0  0  0  0  0
   -0.1338    0.4007   -1.3763 C   0  0  0  0  0  0  0  0  0  0  0  0
   -1.2797   -0.2150   -0.7350 N   0  0  0  0  0  0  0  0  0  0  0  0
   -1.3524   -1.2837    0.0675 C   0  0  0  0  0  0  0  0  0  0  0  0
   -2.6795   -1.4436    0.4010 C   0  0  0  0  0  0  0  0  0  0  0  0
   -3.3988   -0.4958   -0.1837 N   0  0  0  0  0  0  0  0  0  0  0  0
   -2.5412    0.2725   -0.8912 C   0  0  0  0  0  0  0  0  0  0  0  0
   -4.8473   -0.2845   -0.1053 C   0  0  0  0  0  0  0  0  0  0  0  0
    0.0000    0.0000    0.0000 I   0  0  0  0  0  0  0  0  0  0  0  0
    4.1940   -1.3612    0.7582 H   0  0  0  0  0  0  0  0  0  0  0  0
    4.0400   -1.3132   -1.0869 H   0  0  0  0  0  0  0  0  0  0  0  0
    5.2920   -0.2706   -0.2102 H   0  0  0  0  0  0  0  0  0  0  0  0
    3.7268    1.2055    0.4818 H   0  0  0  0  0  0  0  0  0  0  0  0
    2.9342    0.6521   -1.1063 H   0  0  0  0  0  0  0  0  0  0  0  0
    2.3453   -0.3848    1.7156 H   0  0  0  0  0  0  0  0  0  0  0  0
    1.6806   -1.0063    0.1215 H   0  0  0  0  0  0  0  0  0  0  0  0
    1.5057    1.8353    1.2864 H   0  0  0  0  0  0  0  0  0  0  0  0
    0.2127    0.6529    1.4901 H   0  0  0  0  0  0  0  0  0  0  0  0
   -0.2611    2.2753   -0.4186 H   0  0  0  0  0  0  0  0  0  0  0  0
    1.3375    1.8978   -1.0895 H   0  0  0  0  0  0  0  0  0  0  0  0
    0.6090   -0.3643   -1.7280 H   0  0  0  0  0  0  0  0  0  0  0  0
   -0.4460    0.9165   -2.3220 H   0  0  0  0  0  0  0  0  0  0  0  0
   -0.5366   -1.8845    0.3798 H   0  0  0  0  0  0  0  0  0  0  0  0
   -3.0408   -2.2469    1.0539 H   0  0  0  0  0  0  0  0  0  0  0  0
   -2.8210    1.1493   -1.4947 H   0  0  0  0  0  0  0  0  0  0  0  0
   -5.1754   -0.4234    0.9462 H   0  0  0  0  0  0  0  0  0  0  0  0
   -5.0962    0.7443   -0.4441 H   0  0  0  0  0  0  0  0  0  0  0  0
   -5.3614   -0.9988   -0.7574 H   0  0  0  0  0  0  0  0  0  0  0  0
  1  2  1  0  0  0  0
  2  3  1  0  0  0  0
  3  4  1  0  0  0  0
  4  5  1  0  0  0  0
  5  6  1  0  0  0  0
  6  7  1  0  0  0  0
  7  8  1  0  0  0  0
  8  9  4  0  0  0  0
  9 10  1  0  0  0  0
  7 11  1  0  0  0  0
 10 11  1  0  0  0  0
 10 12  1  0  0  0  0
  3 13  1  0  0  0  0
  4 13  1  0  0  0  0
  5 13  1  0  0  0  0
  6 13  1  0  0  0  0
  7 13  1  0  0  0  0
  8 13  1  0  0  0  0
  1 14  1  0  0  0  0
  1 15  1  0  0  0  0
  1 16  1  0  0  0  0
  2 17  1  0  0  0  0
  2 18  1  0  0  0  0
  3 19  1  0  0  0  0
  3 20  1  0  0  0  0
  4 21  1  0  0  0  0
  4 22  1  0  0  0  0
 13 22  1  0  0  0  0
  5 23  1  0  0  0  0
  5 24  1  0  0  0  0
  6 25  1  0  0  0  0
  6 26  1  0  0  0  0
  8 27  1  0  0  0  0
  9 28  1  0  0  0  0
 11 29  1  0  0  0  0
 12 30  1  0  0  0  0
 12 31  1  0  0  0  0
 12 32  1  0  0  0  0
M  END
