 xtb: 6.7.1 (edcfbbe)
          07302619573D

 16 16  0     0  0            999 V2000
    2.1244    0.2878   -0.0163 C   0  0  0  0  0  0  0  0  0  0  0  0
    0.6822    0.2398    0.0216 N   0  0  0  0  0  0  0  0  0  0  0  0
   -0.0225   -0.6500    0.9062 C   0  0  0  0  0  0  0  0  0  0  0  0
   -1.4731   -0.2733    0.6831 C   0  0  0  0  0  0  0  0  0  0  0  0
   -1.5159    0.1359   -0.7848 C   0  0  0  0  0  0  0  0  0  0  0  0
   -0.1133    0.6303   -1.0488 C   0  0  0  0  0  0  0  0  0  0  0  0
    0.2483    1.2192   -2.0539 O   0  0  0  0  0  0  0  0  0  0  0  0
    2.5033    0.4738    0.9919 H   0  0  0  0  0  0  0  0  0  0  0  0
    2.4994   -0.6712   -0.3847 H   0  0  0  0  0  0  0  0  0  0  0  0
    2.4601    1.0826   -0.6879 H   0  0  0  0  0  0  0  0  0  0  0  0
    0.1774   -1.6822    0.5990 H   0  0  0  0  0  0  0  0  0  0  0  0
    0.2956   -0.4980    1.9412 H   0  0  0  0  0  0  0  0  0  0  0  0
   -2.1661   -1.0851    0.9206 H   0  0  0  0  0  0  0  0  0  0  0  0
   -1.7352    0.5886    1.3095 H   0  0  0  0  0  0  0  0  0  0  0  0
   -2.2502    0.9249   -0.9640 H   0  0  0  0  0  0  0  0  0  0  0  0
   -1.7144   -0.7232   -1.4328 H   0  0  0  0  0  0  0  0  0  0  0  0
  1  2  1  0  0  0  0
  2  3  1  0  0  0  0
  3  4  1  0  0  0  0
  4  5  1  0  0  0  0
  2  6  4  0  0  0  0
  5  6  1  0  0  0  0
  6  7  2  0  0  0  0
  1  8  1  0  0  0  0
  1  9  1  0  0  0  0
  1 10  1  0  0  0  0
  3 11  1  0  0  0  0
  3 12  1  0  0  0  0
  4 13  1  0  0  0  0
  4 14  1  0  0  0  0
  5 15  1  0  0  0  0
  5 16  1  0  0  0  0
M  END
