 xtb: 6.7.1 (edcfbbe)
          07302619573D

 11  9  0     0  0            999 V2000
   -0.1366    0.2417   -0.0645 C   0  0  0  0  0  0  0  0  0  0  0  0
   -0.5228    1.4491   -0.2368 N   0  0  0  0  0  0  0  0  0  0  0  0
    1.1584   -0.1566    0.3178 N   0  0  0  0  0  0  0  0  0  0  0  0
   -1.1050   -0.7917   -0.2789 N   0  0  0  0  0  0  0  0  0  0  0  0
    0.8578    0.0000    0.0000 I   0  0  0  0  0  0  0  0  0  0  0  0
    0.2012    2.1994   -0.0752 H   0  0  0  0  0  0  0  0  0  0  0  0
    1.9517   -0.3313   -0.3450 H   0  0  0  0  0  0  0  0  0  0  0  0
    1.3790   -0.2984    1.3398 H   0  0  0  0  0  0  0  0  0  0  0  0
   -1.7842   -0.9599    0.5034 H   0  0  0  0  0  0  0  0  0  0  0  0
   -1.1417   -1.3523   -1.1606 H   0  0  0  0  0  0  0  0  0  0  0  0
   -0.8578    0.0000    0.0000 H   0  0  0  0  0  0  0  0  0  0  0  0
  1  2  1  0  0  0  0
  1  3  1  0  0  0  0
  2  5  1  0  0  0  0
  2  6  1  0  0  0  0
  1  7  1  0  0  0  0
  1  8  1  0  0  0  0
  4  9  1  0  0  0  0
  4 10  1  0  0  0  0
  4 11  1  0  0  0  0
M  END
