 xtb: 6.7.1 (edcfbbe)
          07302619573D

 27 28  0     0  0            999 V2000
   -2.7372    1.9225    0.0947 C   0  0  0  0  0  0  0  0  0  0  0  0
   -3.7835    1.0053    0.0411 C   0  0  0  0  0  0  0  0  0  0  0  0
   -3.5442   -0.3441   -0.2337 C   0  0  0  0  0  0  0  0  0  0  0  0
   -2.2180   -0.7370   -0.4506 C   0  0  0  0  0  0  0  0  0  0  0  0
   -1.1476    0.1562   -0.4019 C   0  0  0  0  0  0  0  0  0  0  0  0
   -1.4170    1.5126   -0.1251 C   0  0  0  0  0  0  0  0  0  0  0  0
    0.0465   -0.5899   -0.6655 C   0  0  0  0  0  0  0  0  0  0  0  0
   -0.3379   -1.9008   -0.8733 C   0  0  0  0  0  0  0  0  0  0  0  0
   -1.6981   -1.9766   -0.7395 N   0  0  0  0  0  0  0  0  0  0  0  0
    1.4452   -0.0531   -0.7176 C   0  0  0  0  0  0  0  0  0  0  0  0
    2.0468    0.2360    0.6677 C   0  0  0  0  0  0  0  0  0  0  0  0
    3.3806    0.9494    0.4521 C   0  0  0  0  0  0  0  0  0  0  0  0
    3.5416    2.1543    0.3322 O   0  0  0  0  0  0  0  0  0  0  0  0
    4.4319    0.1081    0.3164 O   0  0  0  0  0  0  0  0  0  0  0  0
    2.2412   -0.9834    1.4943 N   0  0  0  0  0  0  0  0  0  0  0  0
   -2.9450    2.9679    0.3093 H   0  0  0  0  0  0  0  0  0  0  0  0
   -4.8027    1.3431    0.2147 H   0  0  0  0  0  0  0  0  0  0  0  0
   -4.3621   -1.0557   -0.2762 H   0  0  0  0  0  0  0  0  0  0  0  0
   -0.6112    2.2394   -0.0812 H   0  0  0  0  0  0  0  0  0  0  0  0
    0.2403   -2.7849   -1.1078 H   0  0  0  0  0  0  0  0  0  0  0  0
   -2.2492   -2.8175   -0.8416 H   0  0  0  0  0  0  0  0  0  0  0  0
    2.0869   -0.7586   -1.2634 H   0  0  0  0  0  0  0  0  0  0  0  0
    1.4435    0.8660   -1.3192 H   0  0  0  0  0  0  0  0  0  0  0  0
    1.4051    0.9140    1.2416 H   0  0  0  0  0  0  0  0  0  0  0  0
    5.1976    0.7104    0.2118 H   0  0  0  0  0  0  0  0  0  0  0  0
    2.9644   -1.5506    1.0478 H   0  0  0  0  0  0  0  0  0  0  0  0
    1.3819   -1.5328    1.4623 H   0  0  0  0  0  0  0  0  0  0  0  0
  1  2  4  0  0  0  0
  2  3  4  0  0  0  0
  3  4  4  0  0  0  0
  4  5  4  0  0  0  0
  1  6  4  0  0  0  0
  5  6  4  0  0  0  0
  5  7  4  0  0  0  0
  7  8  2  0  0  0  0
  4  9  1  0  0  0  0
  8  9  4  0  0  0  0
  7 10  1  0  0  0  0
 10 11  1  0  0  0  0
 11 12  1  0  0  0  0
 12 13  2  0  0  0  0
 12 14  1  0  0  0  0
 11 15  1  0  0  0  0
  1 16  1  0  0  0  0
  2 17  1  0  0  0  0
  3 18  1  0  0  0  0
  6 19  1  0  0  0  0
  8 20  1  0  0  0  0
  9 21  1  0  0  0  0
 10 22  1  0  0  0  0
 10 23  1  0  0  0  0
 11 24  1  0  0  0  0
 14 25  1  0  0  0  0
 15 26  1  0  0  0  0
 15 27  1  0  0  0  0
M  END
