 xtb: 6.7.1 (edcfbbe)
          07302619573D

 26 27  0     0  0            999 V2000
   -4.7796   -0.4660    0.3130 C   0  0  0  0  0  0  0  0  0  0  0  0
   -4.0129   -0.8341    1.4214 C   0  0  0  0  0  0  0  0  0  0  0  0
   -2.7391   -0.2958    1.5982 C   0  0  0  0  0  0  0  0  0  0  0  0
   -2.2424    0.5973    0.6505 C   0  0  0  0  0  0  0  0  0  0  0  0
   -3.0046    0.9874   -0.4491 C   0  0  0  0  0  0  0  0  0  0  0  0
   -4.2776    0.4451   -0.6194 C   0  0  0  0  0  0  0  0  0  0  0  0
   -0.9877    1.1741    0.8476 O   0  0  0  0  0  0  0  0  0  0  0  0
    0.0457    0.4428    0.2786 C   0  0  0  0  0  0  0  0  0  0  0  0
   -0.0625   -0.6057   -0.3442 O   0  0  0  0  0  0  0  0  0  0  0  0
    1.2248    1.1235    0.5484 O   0  0  0  0  0  0  0  0  0  0  0  0
    2.3548    0.4926    0.0282 C   0  0  0  0  0  0  0  0  0  0  0  0
    2.7938    0.8261   -1.2519 C   0  0  0  0  0  0  0  0  0  0  0  0
    3.9503    0.2279   -1.7501 C   0  0  0  0  0  0  0  0  0  0  0  0
    4.6612   -0.6819   -0.9636 C   0  0  0  0  0  0  0  0  0  0  0  0
    4.2211   -0.9929    0.3253 C   0  0  0  0  0  0  0  0  0  0  0  0
    3.0654   -0.3987    0.8301 C   0  0  0  0  0  0  0  0  0  0  0  0
   -5.7720   -0.8888    0.1767 H   0  0  0  0  0  0  0  0  0  0  0  0
   -4.4103   -1.5400    2.1460 H   0  0  0  0  0  0  0  0  0  0  0  0
   -2.1437   -0.5745    2.4619 H   0  0  0  0  0  0  0  0  0  0  0  0
   -2.6144    1.7010   -1.1680 H   0  0  0  0  0  0  0  0  0  0  0  0
   -4.8803    0.7314   -1.4774 H   0  0  0  0  0  0  0  0  0  0  0  0
    2.2431    1.5386   -1.8579 H   0  0  0  0  0  0  0  0  0  0  0  0
    4.2998    0.4696   -2.7505 H   0  0  0  0  0  0  0  0  0  0  0  0
    5.5618   -1.1483   -1.3555 H   0  0  0  0  0  0  0  0  0  0  0  0
    4.7806   -1.6980    0.9345 H   0  0  0  0  0  0  0  0  0  0  0  0
    2.7247   -0.6328    1.8338 H   0  0  0  0  0  0  0  0  0  0  0  0
  1  2  4  0  0  0  0
  2  3  4  0  0  0  0
  3  4  4  0  0  0  0
  4  5  4  0  0  0  0
  1  6  4  0  0  0  0
  5  6  4  0  0  0  0
  4  7  1  0  0  0  0
  7  8  1  0  0  0  0
  8  9  2  0  0  0  0
  8 10  1  0  0  0  0
 10 11  1  0  0  0  0
 11 12  4  0  0  0  0
 12 13  4  0  0  0  0
 13 14  4  0  0  0  0
 14 15  4  0  0  0  0
 11 16  4  0  0  0  0
 15 16  4  0  0  0  0
  1 17  1  0  0  0  0
  2 18  1  0  0  0  0
  3 19  1  0  0  0  0
  5 20  1  0  0  0  0
  6 21  1  0  0  0  0
 12 22  1  0  0  0  0
 13 23  1  0  0  0  0
 14 24  1  0  0  0  0
 15 25  1  0  0  0  0
 16 26  1  0  0  0  0
M  END
