 xtb: 6.7.1 (edcfbbe)
          07302619573D

 26 25  0     0  0            999 V2000
   -1.9114    2.0982   -1.2899 C   0  0  0  0  0  0  0  0  0  0  0  0
   -0.6267    1.5461   -1.0652 O   0  0  0  0  0  0  0  0  0  0  0  0
   -0.4914    0.0905   -0.2638 Si  0  0  0  0  0  0  0  0  0  0  0  0
    1.3502   -0.3870   -0.1547 C   0  0  0  0  0  0  0  0  0  0  0  0
    2.2364    0.6480    0.5472 C   0  0  0  0  0  0  0  0  0  0  0  0
    3.6841    0.1883    0.5801 C   0  0  0  0  0  0  0  0  0  0  0  0
    4.7805    1.5163    1.4869 Br  0  0  0  0  0  0  0  0  0  0  0  0
   -1.1184    0.2519    1.2727 O   0  0  0  0  0  0  0  0  0  0  0  0
   -2.4629   -0.1182    1.5263 C   0  0  0  0  0  0  0  0  0  0  0  0
   -1.3737   -1.0516   -1.1009 O   0  0  0  0  0  0  0  0  0  0  0  0
   -1.0402   -2.4232   -0.9694 C   0  0  0  0  0  0  0  0  0  0  0  0
   -1.7922    2.9926   -1.9097 H   0  0  0  0  0  0  0  0  0  0  0  0
   -2.3777    2.4064   -0.3480 H   0  0  0  0  0  0  0  0  0  0  0  0
   -2.5650    1.4030   -1.8289 H   0  0  0  0  0  0  0  0  0  0  0  0
    1.7135   -0.5497   -1.1761 H   0  0  0  0  0  0  0  0  0  0  0  0
    1.4207   -1.3453    0.3728 H   0  0  0  0  0  0  0  0  0  0  0  0
    2.1653    1.6143    0.0308 H   0  0  0  0  0  0  0  0  0  0  0  0
    1.8755    0.8163    1.5704 H   0  0  0  0  0  0  0  0  0  0  0  0
    3.8043   -0.7464    1.1347 H   0  0  0  0  0  0  0  0  0  0  0  0
    4.1000    0.0731   -0.4246 H   0  0  0  0  0  0  0  0  0  0  0  0
   -2.5930   -1.2030    1.4492 H   0  0  0  0  0  0  0  0  0  0  0  0
   -2.7064    0.1739    2.5527 H   0  0  0  0  0  0  0  0  0  0  0  0
   -3.1630    0.3941    0.8577 H   0  0  0  0  0  0  0  0  0  0  0  0
   -1.8020   -3.0092   -1.4930 H   0  0  0  0  0  0  0  0  0  0  0  0
   -1.0335   -2.7414    0.0793 H   0  0  0  0  0  0  0  0  0  0  0  0
   -0.0730   -2.6382   -1.4367 H   0  0  0  0  0  0  0  0  0  0  0  0
  1  2  1  0  0  0  0
  2  3  1  0  0  0  0
  3  4  1  0  0  0  0
  4  5  1  0  0  0  0
  5  6  1  0  0  0  0
  6  7  1  0  0  0  0
  3  8  1  0  0  0  0
  8  9  1  0  0  0  0
  3 10  1  0  0  0  0
 10 11  1  0  0  0  0
  1 12  1  0  0  0  0
  1 13  1  0  0  0  0
  1 14  1  0  0  0  0
  4 15  1  0  0  0  0
  4 16  1  0  0  0  0
  5 17  1  0  0  0  0
  5 18  1  0  0  0  0
  6 19  1  0  0  0  0
  6 20  1  0  0  0  0
  9 21  1  0  0  0  0
  9 22  1  0  0  0  0
  9 23  1  0  0  0  0
 11 24  1  0  0  0  0
 11 25  1  0  0  0  0
 11 26  1  0  0  0  0
M  END
