 xtb: 6.7.1 (edcfbbe)
          07302619573D

 20 20  0     0  0            999 V2000
   -1.1386   -1.0100   -0.7337 C   0  0  0  0  0  0  0  0  0  0  0  0
    0.2124   -0.8262   -1.0391 C   0  0  0  0  0  0  0  0  0  0  0  0
    0.9198    0.2159   -0.4323 C   0  0  0  0  0  0  0  0  0  0  0  0
    0.2845    1.0868    0.4583 C   0  0  0  0  0  0  0  0  0  0  0  0
   -1.0673    0.8996    0.7609 C   0  0  0  0  0  0  0  0  0  0  0  0
   -1.7828   -0.1503    0.1678 C   0  0  0  0  0  0  0  0  0  0  0  0
   -3.2179   -0.3872    0.4590 C   0  0  0  0  0  0  0  0  0  0  0  0
   -3.9030   -1.2754   -0.0127 O   0  0  0  0  0  0  0  0  0  0  0  0
   -3.7270    0.5011    1.3304 O   0  0  0  0  0  0  0  0  0  0  0  0
    2.6231    0.4704   -0.8410 S   0  0  0  0  0  0  0  0  0  0  0  0
    2.9870    1.8329   -0.5306 O   0  0  0  0  0  0  0  0  0  0  0  0
    2.8984   -0.1338   -2.1232 O   0  0  0  0  0  0  0  0  0  0  0  0
    3.3976   -0.4869    0.2993 N   0  0  0  0  0  0  0  0  0  0  0  0
   -1.6893   -1.8235   -1.2036 H   0  0  0  0  0  0  0  0  0  0  0  0
    0.7008   -1.4939   -1.7459 H   0  0  0  0  0  0  0  0  0  0  0  0
    0.8299    1.9088    0.9175 H   0  0  0  0  0  0  0  0  0  0  0  0
   -1.5543    1.5792    1.4569 H   0  0  0  0  0  0  0  0  0  0  0  0
   -4.6641    0.2285    1.4238 H   0  0  0  0  0  0  0  0  0  0  0  0
    3.9757    0.0960    0.9056 H   0  0  0  0  0  0  0  0  0  0  0  0
    3.9151   -1.2320   -0.1682 H   0  0  0  0  0  0  0  0  0  0  0  0
  1  2  4  0  0  0  0
  2  3  4  0  0  0  0
  3  4  4  0  0  0  0
  4  5  4  0  0  0  0
  1  6  4  0  0  0  0
  5  6  4  0  0  0  0
  6  7  1  0  0  0  0
  7  8  2  0  0  0  0
  7  9  1  0  0  0  0
  3 10  1  0  0  0  0
 10 11  2  0  0  0  0
 10 12  2  0  0  0  0
 10 13  1  0  0  0  0
  1 14  1  0  0  0  0
  2 15  1  0  0  0  0
  4 16  1  0  0  0  0
  5 17  1  0  0  0  0
  9 18  1  0  0  0  0
 13 19  1  0  0  0  0
 13 20  1  0  0  0  0
M  END
