 xtb: 6.7.1 (edcfbbe)
          07302619573D

 18 11  0     0  0            999 V2000
   -1.7944    0.4071   -0.5634 C   0  0  0  0  0  0  0  0  0  0  0  0
   -1.2108   -0.5295    0.4683 C   0  0  0  0  0  0  0  0  0  0  0  0
    0.2508   -0.8291    0.1183 C   0  0  0  0  0  0  0  0  0  0  0  0
    1.0021    0.4492    0.1115 C   0  0  0  0  0  0  0  0  0  0  0  0
    2.4011    0.3234   -0.2041 N   0  0  0  0  0  0  0  0  0  0  0  0
    0.8578    0.0000    0.0000 I   0  0  0  0  0  0  0  0  0  0  0  0
   -2.8283    0.0633   -0.8072 H   0  0  0  0  0  0  0  0  0  0  0  0
   -1.1522    0.4093   -1.4701 H   0  0  0  0  0  0  0  0  0  0  0  0
   -1.8590    1.4478   -0.1725 H   0  0  0  0  0  0  0  0  0  0  0  0
   -1.8037   -1.4543    0.5938 H   0  0  0  0  0  0  0  0  0  0  0  0
   -1.1701    0.0212    1.4421 H   0  0  0  0  0  0  0  0  0  0  0  0
    0.2915   -1.3065   -0.8995 H   0  0  0  0  0  0  0  0  0  0  0  0
    0.6407   -1.5692    0.8205 H   0  0  0  0  0  0  0  0  0  0  0  0
    0.5012    1.1686   -0.5446 H   0  0  0  0  0  0  0  0  0  0  0  0
    0.9802    0.8760    1.1485 H   0  0  0  0  0  0  0  0  0  0  0  0
    2.9490    1.1319    0.1099 H   0  0  0  0  0  0  0  0  0  0  0  0
    2.8018   -0.6091    0.0027 H   0  0  0  0  0  0  0  0  0  0  0  0
   -0.8578    0.0000    0.0000 H   0  0  0  0  0  0  0  0  0  0  0  0
  1  2  1  0  0  0  0
  3  4  1  0  0  0  0
  2  5  1  0  0  0  0
  3  5  1  0  0  0  0
  1  7  1  0  0  0  0
  1  8  1  0  0  0  0
  1  9  1  0  0  0  0
  2 10  1  0  0  0  0
  2 11  1  0  0  0  0
  5 16  1  0  0  0  0
  5 17  1  0  0  0  0
M  END
